<?xml version="1.0" encoding="UTF-8"?>

<!-- generated on 2024-05-16 13:03:17.942582 by osmWebWizard.py v1_20_0+0002-343658e7c64
<configuration>
    <net-file value="D:\studyProgaram\2024_Tsuzino_seminor\2024-05-16-13-01-39\osm.net.xml.gz"/>
    <output-trip-file value="D:\studyProgaram\2024_Tsuzino_seminor\2024-05-16-13-01-39\osm.passenger.trips.xml"/>
    <route-file value="D:\studyProgaram\2024_Tsuzino_seminor\2024-05-16-13-01-39\osm.passenger.rou.xml"/>
    <prefix value="veh"/>
    <trip-attributes value="departLane=&quot;best&quot;"/>
    <fringe-start-attributes value="departSpeed=&quot;max&quot;"/>
    <vehicle-class value="passenger"/>
    <lanes value="True"/>
    <fringe-factor value="5"/>
    <allow-fringe.min-length value="1000.0"/>
    <via-edge-types value="highway.motorway,highway.motorway_link,highway.trunk_link,highway.primary_link,highway.secondary_link,highway.tertiary_link"/>
    <min-distance value="300.0"/>
    <min-distance.fringe value="10.0"/>
    <remove-loops value="True"/>
    <validate value="True"/>
    <insertion-density value="12.0"/>
</configuration>
-->

<!-- generated on 2024-05-16 13:03:03 by Eclipse SUMO duarouter Version 1.20.0
<configuration xmlns:xsi="http://www.w3.org/2001/XMLSchema-instance" xsi:noNamespaceSchemaLocation="http://sumo.dlr.de/xsd/duarouterConfiguration.xsd">

    <input>
        <net-file value="D:\studyProgaram\2024_Tsuzino_seminor\2024-05-16-13-01-39\osm.net.xml.gz"/>
        <route-files value="D:\studyProgaram\2024_Tsuzino_seminor\2024-05-16-13-01-39\osm.passenger.trips.xml"/>
    </input>

    <output>
        <output-file value="D:\studyProgaram\2024_Tsuzino_seminor\2024-05-16-13-01-39\osm.passenger.trips.xml.tmp"/>
        <alternatives-output value="NUL"/>
        <write-trips value="true"/>
    </output>

    <processing>
        <remove-loops value="true"/>
    </processing>

    <time>
        <begin value="0.0"/>
        <end value="3600.0"/>
    </time>

    <report>
        <no-warnings value="true"/>
        <ignore-errors value="true"/>
        <no-step-log value="true"/>
    </report>

</configuration>
-->

<routes xmlns:xsi="http://www.w3.org/2001/XMLSchema-instance" xsi:noNamespaceSchemaLocation="http://sumo.dlr.de/xsd/routes_file.xsd">
    <vType id="veh_passenger" vClass="passenger"/>
    <trip id="veh0" type="veh_passenger" depart="0.00" departLane="best" from="639565513" to="-580765709"/>
    <trip id="veh1" type="veh_passenger" depart="0.39" departLane="best" from="265150734#1" to="190535816#3"/>
    <trip id="veh2" type="veh_passenger" depart="0.79" departLane="best" from="646327583" to="642114252#1"/>
    <!-- <trip id="veh3" type="veh_passenger" depart="1.18" departLane="best" from="722266522" to="-646636841"/>
    <trip id="veh4" type="veh_passenger" depart="1.58" departLane="best" from="536655848" to="-633563767"/>
    <trip id="veh5" type="veh_passenger" depart="1.97" departLane="best" from="194654913#1" to="632024035"/>
    <trip id="veh6" type="veh_passenger" depart="2.36" departLane="best" from="-631792774" to="173896212#6"/>
    <trip id="veh7" type="veh_passenger" depart="2.76" departLane="best" from="639892538#1" to="632786478#2"/>
    <trip id="veh8" type="veh_passenger" depart="3.15" departLane="best" from="223860387#0" to="635392774"/>
    <trip id="veh9" type="veh_passenger" depart="3.54" departLane="best" from="655531800" to="-176204390#0"/>
    <trip id="veh10" type="veh_passenger" depart="3.94" departLane="best" from="655232306" to="644298050"/>
    <trip id="veh11" type="veh_passenger" depart="4.33" departLane="best" from="481628924" to="1137525160#1"/>
    <trip id="veh12" type="veh_passenger" depart="4.73" departLane="best" from="754478251" to="481621504#1"/>
    <trip id="veh13" type="veh_passenger" depart="5.12" departLane="best" from="-646668518" to="-646758409"/>
    <trip id="veh14" type="veh_passenger" depart="5.51" departLane="best" from="676952846" to="635691785#1"/>
    <trip id="veh15" type="veh_passenger" depart="5.91" departLane="best" from="655510551" to="646226502"/>
    <trip id="veh16" type="veh_passenger" depart="6.30" departLane="best" from="632703919" to="769580779#0"/>
    <trip id="veh17" type="veh_passenger" depart="6.70" departLane="best" from="664301141" to="636839120#1"/>
    <trip id="veh18" type="veh_passenger" depart="7.09" departLane="best" from="701832757#0" to="635304523#0"/>
    <trip id="veh19" type="veh_passenger" depart="7.48" departLane="best" from="644882084#1" to="-641058122"/>
    <trip id="veh20" type="veh_passenger" depart="7.88" departLane="best" from="223860475" to="325024341#0"/>
    <trip id="veh21" type="veh_passenger" depart="8.27" departLane="best" from="-646270987" to="223860475"/>
    <trip id="veh22" type="veh_passenger" depart="8.67" departLane="best" from="-646896646" to="251582125"/>
    <trip id="veh23" type="veh_passenger" depart="9.06" departLane="best" from="639302657#1" to="482053322"/>
    <trip id="veh24" type="veh_passenger" depart="9.45" departLane="best" from="482071862" to="175840035#2"/>
    <trip id="veh25" type="veh_passenger" depart="9.85" departLane="best" from="251582086" to="747494503"/>
    <trip id="veh26" type="veh_passenger" depart="10.24" departLane="best" from="639865163#0" to="635748328"/>
    <trip id="veh27" type="veh_passenger" depart="10.63" departLane="best" from="1276426074#1" to="646225918"/>
    <trip id="veh28" type="veh_passenger" depart="11.03" departLane="best" from="119941775" to="482087543"/>
    <trip id="veh29" type="veh_passenger" depart="11.42" departLane="best" from="824531526" to="639592424#0"/>
    <trip id="veh30" type="veh_passenger" depart="11.82" departLane="best" from="633566702" to="-643413846#1"/>
    <trip id="veh31" type="veh_passenger" depart="12.21" departLane="best" from="671522621#0" to="649784399"/>
    <trip id="veh32" type="veh_passenger" depart="12.60" departLane="best" from="-22733411#1" to="-635334421#1"/>
    <trip id="veh33" type="veh_passenger" depart="13.00" departLane="best" from="479370445#1" to="251582051"/>
    <trip id="veh34" type="veh_passenger" depart="13.39" departLane="best" from="175959438#2" to="74939767#2"/>
    <trip id="veh35" type="veh_passenger" depart="13.79" departLane="best" from="710052106" to="479337793#1"/>
    <trip id="veh36" type="veh_passenger" depart="14.18" departLane="best" from="736937268#3" to="539538359#1"/>
    <trip id="veh37" type="veh_passenger" depart="14.57" departLane="best" from="630410466#0" to="22887333#1"/>
    <trip id="veh38" type="veh_passenger" depart="14.97" departLane="best" from="633588681#1" to="251582024#1"/>
    <trip id="veh39" type="veh_passenger" depart="15.36" departLane="best" from="635371943" to="723536165"/>
    <trip id="veh40" type="veh_passenger" depart="15.75" departLane="best" from="503519459#0" to="176204391#0"/>
    <trip id="veh41" type="veh_passenger" depart="16.15" departLane="best" from="953892110" to="632076929"/>
    <trip id="veh42" type="veh_passenger" depart="16.54" departLane="best" from="-646654220" to="642125676#0"/>
    <trip id="veh44" type="veh_passenger" depart="17.33" departLane="best" from="654871953#0" to="536655900"/>
    <trip id="veh45" type="veh_passenger" depart="17.72" departLane="best" from="-645165891" to="632695037"/>
    <trip id="veh46" type="veh_passenger" depart="18.12" departLane="best" from="902873380" to="632412278"/>
    <trip id="veh47" type="veh_passenger" depart="18.51" departLane="best" from="761129507" to="701144413"/>
    <trip id="veh48" type="veh_passenger" depart="18.91" departLane="best" from="22887339#1" to="646131212"/>
    <trip id="veh49" type="veh_passenger" depart="19.30" departLane="best" from="642661633" to="632710849"/>
    <trip id="veh50" type="veh_passenger" depart="19.69" departLane="best" from="251582086" to="639605705"/>
    <trip id="veh51" type="veh_passenger" depart="20.09" departLane="best" from="-664323661" to="538291761#1"/>
    <trip id="veh52" type="veh_passenger" depart="20.48" departLane="best" from="539526400#1" to="75417921"/>
    <trip id="veh53" type="veh_passenger" depart="20.88" departLane="best" from="709881794" to="251582031"/>
    <trip id="veh54" type="veh_passenger" depart="21.27" departLane="best" from="631550544#1" to="155925876#0"/>
    <trip id="veh55" type="veh_passenger" depart="21.66" departLane="best" from="736403522" to="709510016"/>
    <trip id="veh56" type="veh_passenger" depart="22.06" departLane="best" from="465270689" to="639551510"/>
    <trip id="veh57" type="veh_passenger" depart="22.45" departLane="best" from="635745924" to="1082218537"/>
    <trip id="veh58" type="veh_passenger" depart="22.84" departLane="best" from="646876755#0" to="632724010#0"/>
    <trip id="veh60" type="veh_passenger" depart="23.63" departLane="best" from="-1060425536" to="479745952#0"/>
    <trip id="veh61" type="veh_passenger" depart="24.03" departLane="best" from="-482519378#4" to="746626787"/>
    <trip id="veh62" type="veh_passenger" depart="24.42" departLane="best" from="710449765#1" to="664301144#2"/>
    <trip id="veh63" type="veh_passenger" depart="24.81" departLane="best" departSpeed="max" from="479132843" to="-644412090"/>
    <trip id="veh64" type="veh_passenger" depart="25.21" departLane="best" from="710426488" to="75237303#1"/>
    <trip id="veh65" type="veh_passenger" depart="25.60" departLane="best" from="-646629930#0" to="617971392#1"/>
    <trip id="veh68" type="veh_passenger" depart="26.78" departLane="best" from="541148093" to="633202334#0"/>
    <trip id="veh69" type="veh_passenger" depart="27.18" departLane="best" from="251582072" to="709567666"/>
    <trip id="veh70" type="veh_passenger" depart="27.57" departLane="best" from="536655894" to="175847336"/>
    <trip id="veh71" type="veh_passenger" depart="27.97" departLane="best" from="632724009#1" to="646227104"/>
    <trip id="veh72" type="veh_passenger" depart="28.36" departLane="best" from="175014492#0" to="477953255#1"/>
    <trip id="veh73" type="veh_passenger" depart="28.75" departLane="best" from="87936189#6" to="639886285#2"/>
    <trip id="veh74" type="veh_passenger" depart="29.15" departLane="best" from="539263425" to="632359778"/>
    <trip id="veh75" type="veh_passenger" depart="29.54" departLane="best" from="-671739605#3" to="200159290#1"/>
    <trip id="veh76" type="veh_passenger" depart="29.93" departLane="best" from="481621512#2" to="635391593#1"/>
    <trip id="veh77" type="veh_passenger" depart="30.33" departLane="best" from="22752253" to="176204398#1"/>
    <trip id="veh78" type="veh_passenger" depart="30.72" departLane="best" from="-646149319" to="638457911"/>
    <trip id="veh79" type="veh_passenger" depart="31.12" departLane="best" from="-22733411#0" to="725914487"/>
    <trip id="veh80" type="veh_passenger" depart="31.51" departLane="best" from="701305896" to="646154245"/>
    <trip id="veh81" type="veh_passenger" depart="31.90" departLane="best" from="22886354" to="641103757"/>
    <trip id="veh82" type="veh_passenger" depart="32.30" departLane="best" from="176204390#4" to="722309144"/>
    <trip id="veh83" type="veh_passenger" depart="32.69" departLane="best" from="747390013#0" to="635105716#1"/>
    <trip id="veh84" type="veh_passenger" depart="33.09" departLane="best" from="540508674#1" to="652274162"/>
    <trip id="veh85" type="veh_passenger" depart="33.48" departLane="best" from="655514001" to="173767747"/>
    <trip id="veh86" type="veh_passenger" depart="33.87" departLane="best" from="-646758052#0" to="537148252#1"/>
    <trip id="veh87" type="veh_passenger" depart="34.27" departLane="best" from="536655900" to="539770675#0"/>
    <trip id="veh88" type="veh_passenger" depart="34.66" departLane="best" from="-646226501" to="641559970#0-AddedOffRampEdge"/>
    <trip id="veh89" type="veh_passenger" depart="35.05" departLane="best" from="821739154#0" to="-646834141"/>
    <trip id="veh90" type="veh_passenger" depart="35.45" departLane="best" from="512870289#1" to="636934728#1"/>
    <trip id="veh91" type="veh_passenger" depart="35.84" departLane="best" from="701832755#1" to="22904179"/>
    <trip id="veh92" type="veh_passenger" depart="36.24" departLane="best" from="173896149#0" to="539512934#0"/>
    <trip id="veh93" type="veh_passenger" depart="36.63" departLane="best" from="536655849" to="251589106"/>
    <trip id="veh94" type="veh_passenger" depart="37.02" departLane="best" from="234962154" to="742798160#0"/>
    <trip id="veh95" type="veh_passenger" depart="37.42" departLane="best" from="539311821#1" to="701288084"/>
    <trip id="veh96" type="veh_passenger" depart="37.81" departLane="best" from="633202334#1" to="-643444665"/>
    <trip id="veh97" type="veh_passenger" depart="38.21" departLane="best" from="98284572#1" to="664991645"/>
    <trip id="veh98" type="veh_passenger" depart="38.60" departLane="best" from="755100185#1" to="744907218"/>
    <trip id="veh99" type="veh_passenger" depart="38.99" departLane="best" from="689571993#1" to="1206759833-AddedOffRampEdge"/>
    <trip id="veh100" type="veh_passenger" depart="39.39" departLane="best" from="617971392#1" to="175878996#1"/>
    <trip id="veh101" type="veh_passenger" depart="39.78" departLane="best" departSpeed="max" from="503519954" to="644469189#0"/>
    <trip id="veh102" type="veh_passenger" depart="40.18" departLane="best" from="482087300" to="822381566#1"/>
    <trip id="veh103" type="veh_passenger" depart="40.57" departLane="best" from="251582074#1" to="652152114"/>
    <trip id="veh104" type="veh_passenger" depart="40.96" departLane="best" from="539535932" to="536655909"/>
    <trip id="veh105" type="veh_passenger" depart="41.36" departLane="best" from="754484256#1" to="882665724#0"/>
    <trip id="veh106" type="veh_passenger" depart="41.75" departLane="best" from="633563628#0" to="645335654#0"/>
    <trip id="veh107" type="veh_passenger" depart="42.14" departLane="best" from="113101744" to="383249803#0"/>
    <trip id="veh108" type="veh_passenger" depart="42.54" departLane="best" from="755100185#1" to="635323752"/>
    <trip id="veh109" type="veh_passenger" depart="42.93" departLane="best" from="632733518#1" to="646651316"/>
    <trip id="veh111" type="veh_passenger" depart="43.72" departLane="best" from="631770165#0" to="-234202527"/>
    <trip id="veh112" type="veh_passenger" depart="44.11" departLane="best" from="760084847" to="754760999#2"/>
    <trip id="veh113" type="veh_passenger" depart="44.51" departLane="best" from="-646278257" to="173767618"/>
    <trip id="veh114" type="veh_passenger" depart="44.90" departLane="best" from="635581635#0" to="617923187#1"/>
    <trip id="veh115" type="veh_passenger" depart="45.30" departLane="best" from="22885696" to="-670474309"/>
    <trip id="veh116" type="veh_passenger" depart="45.69" departLane="best" from="721886563#1" to="22887332#4"/>
    <trip id="veh117" type="veh_passenger" depart="46.08" departLane="best" from="635526396" to="636841217#2"/>
    <trip id="veh118" type="veh_passenger" depart="46.48" departLane="best" departSpeed="max" from="536096908" to="635362838#0"/>
    <trip id="veh119" type="veh_passenger" depart="46.87" departLane="best" from="632390119#0" to="747390013#0"/>
    <trip id="veh120" type="veh_passenger" depart="47.26" departLane="best" departSpeed="max" from="175845927" to="645284347"/>
    <trip id="veh121" type="veh_passenger" depart="47.66" departLane="best" from="22886447" to="617971396#1"/>
    <trip id="veh122" type="veh_passenger" depart="48.05" departLane="best" from="641449393#1" to="383209591#1"/>
    <trip id="veh123" type="veh_passenger" depart="48.45" departLane="best" from="479370449" to="646668613"/>
    <trip id="veh124" type="veh_passenger" depart="48.84" departLane="best" from="646176556" to="539538358#1"/>
    <trip id="veh125" type="veh_passenger" depart="49.23" departLane="best" from="97638568#0" to="902873380"/>
    <trip id="veh126" type="veh_passenger" depart="49.63" departLane="best" from="-646189693#0" to="175878993"/>
    <trip id="veh127" type="veh_passenger" depart="50.02" departLane="best" from="251582074#1" to="173767973#1"/>
    <trip id="veh128" type="veh_passenger" depart="50.42" departLane="best" from="482059974" to="115827247"/>
    <trip id="veh129" type="veh_passenger" depart="50.81" departLane="best" from="664991163" to="644749786"/>
    <trip id="veh130" type="veh_passenger" depart="51.20" departLane="best" from="635752351#1" to="823170357"/>
    <trip id="veh131" type="veh_passenger" depart="51.60" departLane="best" from="639971296#2" to="-190535816#1"/>
    <trip id="veh132" type="veh_passenger" depart="51.99" departLane="best" from="655807465#1" to="391259876"/>
    <trip id="veh133" type="veh_passenger" depart="52.39" departLane="best" from="640325385" to="74798117#0"/>
    <trip id="veh134" type="veh_passenger" depart="52.78" departLane="best" from="-723687435" to="-664357668#0"/>
    <trip id="veh135" type="veh_passenger" depart="53.17" departLane="best" from="-664037894" to="633310620#1"/>
    <trip id="veh137" type="veh_passenger" depart="53.96" departLane="best" from="645326994" to="173896236"/>
    <trip id="veh138" type="veh_passenger" depart="54.35" departLane="best" from="639122058" to="251582035#1"/>
    <trip id="veh139" type="veh_passenger" depart="54.75" departLane="best" from="630409404" to="541341997"/>
    <trip id="veh140" type="veh_passenger" depart="55.14" departLane="best" from="673744842" to="-646668464#0"/>
    <trip id="veh141" type="veh_passenger" depart="55.54" departLane="best" from="536655900" to="251582117"/>
    <trip id="veh142" type="veh_passenger" depart="55.93" departLane="best" from="1183482565#2" to="648651925"/>
    <trip id="veh143" type="veh_passenger" depart="56.32" departLane="best" from="639450602#0" to="251582022#0"/>
    <trip id="veh144" type="veh_passenger" depart="56.72" departLane="best" from="646467570#0" to="633270550#0"/>
    <trip id="veh145" type="veh_passenger" depart="57.11" departLane="best" from="251582089#0" to="-22885694"/>
    <trip id="veh146" type="veh_passenger" depart="57.51" departLane="best" from="-646209570" to="710817308"/>
    <trip id="veh147" type="veh_passenger" depart="57.90" departLane="best" from="725914543" to="632786480#0"/>
    <trip id="veh148" type="veh_passenger" depart="58.29" departLane="best" from="-667296230" to="635333987"/>
    <trip id="veh149" type="veh_passenger" depart="58.69" departLane="best" from="1000098129" to="-699878673"/>
    <trip id="veh150" type="veh_passenger" depart="59.08" departLane="best" departSpeed="max" from="479326462#0" to="723723120#0"/>
    <trip id="veh151" type="veh_passenger" depart="59.48" departLane="best" from="654902921" to="701144413"/>
    <trip id="veh152" type="veh_passenger" depart="59.87" departLane="best" departSpeed="max" from="724320981" to="175840035#2"/>
    <trip id="veh153" type="veh_passenger" depart="60.26" departLane="best" from="234962153" to="-652150145"/>
    <trip id="veh154" type="veh_passenger" depart="60.66" departLane="best" from="651935224" to="711227438#0"/>
    <trip id="veh155" type="veh_passenger" depart="61.05" departLane="best" from="512870457#1" to="636849704"/>
    <trip id="veh156" type="veh_passenger" depart="61.44" departLane="best" from="1124474511#0" to="746628429#1"/>
    <trip id="veh157" type="veh_passenger" depart="61.84" departLane="best" from="708720273#1" to="789738592"/>
    <trip id="veh158" type="veh_passenger" depart="62.23" departLane="best" from="655534927" to="710449766"/>
    <trip id="veh159" type="veh_passenger" depart="62.63" departLane="best" from="-544650072#2" to="646326146"/>
    <trip id="veh160" type="veh_passenger" depart="63.02" departLane="best" from="481105862" to="747247414"/>
    <trip id="veh161" type="veh_passenger" depart="63.41" departLane="best" from="655135994#0" to="701832757#0"/>
    <trip id="veh162" type="veh_passenger" depart="63.81" departLane="best" from="655534927" to="251582108"/>
    <trip id="veh163" type="veh_passenger" depart="64.20" departLane="best" from="652552330#1" to="-664064801#0"/>
    <trip id="veh164" type="veh_passenger" depart="64.60" departLane="best" from="709852440" to="699878668"/>
    <trip id="veh165" type="veh_passenger" depart="64.99" departLane="best" from="223860420#1" to="655781911#1"/>
    <trip id="veh166" type="veh_passenger" depart="65.38" departLane="best" from="539643352" to="465270703#0"/>
    <trip id="veh167" type="veh_passenger" depart="65.78" departLane="best" from="654883592" to="223860421"/>
    <trip id="veh168" type="veh_passenger" depart="66.17" departLane="best" from="-543183414#0" to="173767973#1"/>
    <trip id="veh169" type="veh_passenger" depart="66.56" departLane="best" departSpeed="max" from="480884469" to="701841496#1"/>
    <trip id="veh170" type="veh_passenger" depart="66.96" departLane="best" from="75502028#1" to="251738994#1"/>
    <trip id="veh171" type="veh_passenger" depart="67.35" departLane="best" from="639642926#0" to="503519459#0"/>
    <trip id="veh172" type="veh_passenger" depart="67.75" departLane="best" from="795211464" to="632703919"/>
    <trip id="veh173" type="veh_passenger" depart="68.14" departLane="best" from="747777158#3" to="-664357667"/>
    <trip id="veh174" type="veh_passenger" depart="68.53" departLane="best" from="760084847" to="155925876#0"/>
    <trip id="veh175" type="veh_passenger" depart="68.93" departLane="best" from="754785956" to="251582041"/>
    <trip id="veh176" type="veh_passenger" depart="69.32" departLane="best" from="-664057648" to="538291751#1"/>
    <trip id="veh177" type="veh_passenger" depart="69.72" departLane="best" from="-646225917" to="479326470#0"/>
    <trip id="veh178" type="veh_passenger" depart="70.11" departLane="best" from="635723481#0" to="632083260#0"/>
    <trip id="veh179" type="veh_passenger" depart="70.50" departLane="best" from="482089870" to="635301958"/>
    <trip id="veh180" type="veh_passenger" depart="70.90" departLane="best" from="251582011" to="645114942#1"/>
    <trip id="veh181" type="veh_passenger" depart="71.29" departLane="best" from="-113101744" to="744616094"/>
    <trip id="veh182" type="veh_passenger" depart="71.69" departLane="best" from="632722306" to="645371989"/>
    <trip id="veh183" type="veh_passenger" depart="72.08" departLane="best" from="646478885" to="641205858#1"/>
    <trip id="veh184" type="veh_passenger" depart="72.47" departLane="best" from="482053314" to="-646147484#0"/>
    <trip id="veh185" type="veh_passenger" depart="72.87" departLane="best" from="641063776#1" to="480884476"/>
    <trip id="veh187" type="veh_passenger" depart="73.65" departLane="best" from="645379738#1" to="413996808"/>
    <trip id="veh188" type="veh_passenger" depart="74.05" departLane="best" from="479326470#1" to="512991812#0"/>
    <trip id="veh189" type="veh_passenger" depart="74.44" departLane="best" from="512870285#1" to="383249794#0"/>
    <trip id="veh190" type="veh_passenger" depart="74.84" departLane="best" from="-699878665" to="536655883#2"/>
    <trip id="veh191" type="veh_passenger" depart="75.23" departLane="best" from="652152115" to="673292061#0"/>
    <trip id="veh192" type="veh_passenger" depart="75.62" departLane="best" from="725914530" to="636810404#0"/>
    <trip id="veh193" type="veh_passenger" depart="76.02" departLane="best" from="465458232" to="633025984#1"/>
    <trip id="veh194" type="veh_passenger" depart="76.41" departLane="best" from="-104127529" to="75237305#1"/>
    <trip id="veh195" type="veh_passenger" depart="76.81" departLane="best" from="537120332#1" to="635323754#1"/>
    <trip id="veh196" type="veh_passenger" depart="77.20" departLane="best" from="639975842#0" to="539746737#6"/>
    <trip id="veh197" type="veh_passenger" depart="77.59" departLane="best" from="539305397" to="175878996#1"/>
    <trip id="veh198" type="veh_passenger" depart="77.99" departLane="best" from="541130678" to="724472288"/>
    <trip id="veh199" type="veh_passenger" depart="78.38" departLane="best" from="654902921" to="1220000765#1"/>
    <trip id="veh200" type="veh_passenger" depart="78.77" departLane="best" from="-646467569" to="632348723#0"/>
    <trip id="veh201" type="veh_passenger" depart="79.17" departLane="best" from="638916754#0" to="481621500#0"/>
    <trip id="veh202" type="veh_passenger" depart="79.56" departLane="best" from="656456695" to="646666914"/>
    <trip id="veh203" type="veh_passenger" depart="79.96" departLane="best" from="641549243" to="200159290#1"/>
    <trip id="veh204" type="veh_passenger" depart="80.35" departLane="best" from="173896245" to="-544824710#0"/>
    <trip id="veh205" type="veh_passenger" depart="80.74" departLane="best" from="632724010#0" to="551163895#1"/>
    <trip id="veh206" type="veh_passenger" depart="81.14" departLane="best" from="694531402#1" to="646189693#1"/>
    <trip id="veh207" type="veh_passenger" depart="81.53" departLane="best" from="529549236#1" to="637959070"/>
    <trip id="veh208" type="veh_passenger" depart="81.93" departLane="best" from="173896212#10" to="644262818"/>
    <trip id="veh209" type="veh_passenger" depart="82.32" departLane="best" from="631521877#1" to="22886838#0"/>
    <trip id="veh210" type="veh_passenger" depart="82.71" departLane="best" from="640010861#1" to="172344435"/>
    <trip id="veh211" type="veh_passenger" depart="83.11" departLane="best" from="646668464#0" to="647460009#3"/>
    <trip id="veh212" type="veh_passenger" depart="83.50" departLane="best" from="-664037892" to="537088439"/>
    <trip id="veh213" type="veh_passenger" depart="83.90" departLane="best" from="146665363#1" to="754508358#1"/>
    <trip id="veh214" type="veh_passenger" depart="84.29" departLane="best" from="632363045" to="-643413847"/>
    <trip id="veh215" type="veh_passenger" depart="84.68" departLane="best" from="234962150" to="674848156#0"/>
    <trip id="veh216" type="veh_passenger" depart="85.08" departLane="best" from="539538352#1" to="655000283#1"/>
    <trip id="veh217" type="veh_passenger" depart="85.47" departLane="best" from="641096087" to="823669780#1"/>
    <trip id="veh218" type="veh_passenger" depart="85.86" departLane="best" from="635582279" to="75334685"/>
    <trip id="veh219" type="veh_passenger" depart="86.26" departLane="best" from="721886568" to="635754553#0"/>
    <trip id="veh220" type="veh_passenger" depart="86.65" departLane="best" from="645371992#0" to="632022315"/>
    <trip id="veh221" type="veh_passenger" depart="87.05" departLane="best" from="664308443#1" to="633025984#1"/>
    <trip id="veh222" type="veh_passenger" depart="87.44" departLane="best" from="723796460" to="646632659"/>
    <trip id="veh223" type="veh_passenger" depart="87.83" departLane="best" from="541148091#0" to="251582009"/>
    <trip id="veh224" type="veh_passenger" depart="88.23" departLane="best" departSpeed="max" from="22906752" to="639551504"/>
    <trip id="veh225" type="veh_passenger" depart="88.62" departLane="best" from="647087594#1" to="632376522#3"/>
    <trip id="veh226" type="veh_passenger" depart="89.02" departLane="best" from="637042260#2" to="251582107#0"/>
    <trip id="veh227" type="veh_passenger" depart="89.41" departLane="best" from="-646232654" to="305406961#1"/>
    <trip id="veh228" type="veh_passenger" depart="89.80" departLane="best" from="251582115#1" to="479370446"/>
    <trip id="veh229" type="veh_passenger" depart="90.20" departLane="best" from="632727858" to="-74939747"/>
    <trip id="veh230" type="veh_passenger" depart="90.59" departLane="best" from="22885259" to="644131138#1"/>
    <trip id="veh231" type="veh_passenger" depart="90.99" departLane="best" from="644987929#1" to="-645217384"/>
    <trip id="veh232" type="veh_passenger" depart="91.38" departLane="best" from="512870463" to="632737517#1"/>
    <trip id="veh233" type="veh_passenger" depart="91.77" departLane="best" from="529888767#0" to="512870333"/>
    <trip id="veh234" type="veh_passenger" depart="92.17" departLane="best" from="536655839#1" to="725914514"/>
    <trip id="veh235" type="veh_passenger" depart="92.56" departLane="best" from="635367428" to="644170937#1"/>
    <trip id="veh236" type="veh_passenger" depart="92.95" departLane="best" from="699889827#0" to="646982404#0"/>
    <trip id="veh237" type="veh_passenger" depart="93.35" departLane="best" from="482087548" to="-173896210"/>
    <trip id="veh238" type="veh_passenger" depart="93.74" departLane="best" from="481869564" to="646676451"/>
    <trip id="veh239" type="veh_passenger" depart="94.14" departLane="best" from="698055747" to="75417918#1"/>
    <trip id="veh240" type="veh_passenger" depart="94.53" departLane="best" departSpeed="max" from="536096908" to="646650935"/>
    <trip id="veh241" type="veh_passenger" depart="94.92" departLane="best" from="632803106#1" to="635691631#0"/>
    <trip id="veh242" type="veh_passenger" depart="95.32" departLane="best" from="223860387#1" to="176204391#2"/>
    <trip id="veh244" type="veh_passenger" depart="96.11" departLane="best" from="481621506" to="642142067"/>
    <trip id="veh245" type="veh_passenger" depart="96.50" departLane="best" from="512870414#0" to="120169547#1"/>
    <trip id="veh246" type="veh_passenger" depart="96.89" departLane="best" from="539770676#2" to="-699890525"/>
    <trip id="veh247" type="veh_passenger" depart="97.29" departLane="best" from="636863059" to="-632690147#2"/>
    <trip id="veh248" type="veh_passenger" depart="97.68" departLane="best" from="482519381#1" to="633794971#1"/>
    <trip id="veh249" type="veh_passenger" depart="98.07" departLane="best" from="-632390119#0" to="539418287"/>
    <trip id="veh250" type="veh_passenger" depart="98.47" departLane="best" from="-727564084#0" to="539643362#1"/>
    <trip id="veh251" type="veh_passenger" depart="98.86" departLane="best" from="643399165" to="482087300"/>
    <trip id="veh252" type="veh_passenger" depart="99.26" departLane="best" from="251581972#1" to="479771404#0"/>
    <trip id="veh253" type="veh_passenger" depart="99.65" departLane="best" from="646838053" to="482087300"/>